Circuit: * C:\Users\soFTech\OneDrive\Desktop\icProj\Draft2.asc

Fatal Error: This circuit does not contain a node other than node "0" (GND)
