Circuit: * header information:

Fatal Error: Unknown subcircuit called in:
   x
