Circuit: *** SPICE deck for cell Nand{sch} from library Nand

Fatal Error: Multiple instances of "Measure"
